data_image0
_chemical_formula_structural       Ba2Ti2O6
_chemical_formula_sum              "Ba2 Ti2 O6"
_cell_length_a       5.666408035279349
_cell_length_b       5.6664076443956235
_cell_length_c       5.668373884507181
_cell_angle_alpha    119.98853562968743
_cell_angle_beta     119.98853684518572
_cell_angle_gamma    90.00000405170597

_space_group_name_H-M_alt    "P 1"
_space_group_IT_number       1

loop_
  _space_group_symop_operation_xyz
  'x, y, z'

loop_
  _atom_site_type_symbol
  _atom_site_label
  _atom_site_symmetry_multiplicity
  _atom_site_fract_x
  _atom_site_fract_y
  _atom_site_fract_z
  _atom_site_occupancy
  Ba  Ba1       1.0  0.7499999999999999  0.24999999999999997  0.5  1.0000
  Ba  Ba2       1.0  0.24999999999999994  0.7499999999999999  0.49999999999999994  1.0000
  Ti  Ti1       1.0  0.5  0.49999999999999994  0.0  1.0000
  Ti  Ti2       1.0  0.0  0.0  0.0  1.0000
  O   O1        1.0  0.75046047  0.25046046999999994  0.0  1.0000
  O   O2        1.0  0.7495395300000001  0.7504604699999999  0.0  1.0000
  O   O3        1.0  0.25046047  0.24953952999999995  0.0  1.0000
  O   O4        1.0  0.24953952999999995  0.74953953  0.9999999999999999  1.0000
  O   O5        1.0  0.25  0.24999999999999997  0.5  1.0000
  O   O6        1.0  0.75  0.7499999999999999  0.5  1.0000
